functions/OneTimeScripts/validationAgainstOpenDSS_MATLAB/ieee123_1ph_created/results/powers8.csv
Element, Terminal, P(kW), Q(kvar),  P_Normal, Q_Normal, P_Emergency, Q_Emergency
"Line.L115"             ,   1,       569.3,       231.6,         0.0,         0.0,         0.0,         0.0
"Line.L115"             ,   2,      -567.8,      -228.5
"Line.L1"               ,   1,         4.7,         2.3,         0.0,         0.0,         0.0,         0.0
"Line.L1"               ,   2,        -4.7,        -2.3
"Line.L2"               ,   1,        23.5,        11.8,         0.0,         0.0,         0.0,         0.0
"Line.L2"               ,   2,       -23.5,       -11.8
"Line.L3"               ,   1,       530.2,       209.7,         0.0,         0.0,         0.0,         0.0
"Line.L3"               ,   2,      -529.2,      -207.7
"Line.L4"               ,   1,         9.4,         4.7,         0.0,         0.0,         0.0,         0.0
"Line.L4"               ,   2,        -9.4,        -4.7
"Line.L5"               ,   1,        14.1,         7.1,         0.0,         0.0,         0.0,         0.0
"Line.L5"               ,   2,       -14.1,        -7.0
"Line.L6"               ,   1,         9.4,         4.7,         0.0,         0.0,         0.0,         0.0
"Line.L6"               ,   2,        -9.4,        -4.7
"Line.L7"               ,   1,       524.5,       205.4,         0.0,         0.0,         0.0,         0.0
"Line.L7"               ,   2,      -523.9,      -204.1
"Line.L8"               ,   1,         4.7,         2.3,         0.0,         0.0,         0.0,         0.0
"Line.L8"               ,   2,        -4.7,        -2.3
"Line.L9"               ,   1,        10.2,        11.8,         0.0,         0.0,         0.0,         0.0
"Line.L9"               ,   2,       -10.2,       -11.8
"Line.L10"              ,   1,       509.0,       190.0,         0.0,         0.0,         0.0,         0.0
"Line.L10"              ,   2,      -508.1,      -188.1
"Line.L11"              ,   1,        14.1,         7.1,         0.0,         0.0,         0.0,         0.0
"Line.L11"              ,   2,       -14.1,        -7.0
"Line.L12"              ,   1,        23.5,        11.8,         0.0,         0.0,         0.0,         0.0
"Line.L12"              ,   2,       -23.5,       -11.7
"Line.L13"              ,   1,       179.4,       154.2,         0.0,         0.0,         0.0,         0.0
"Line.L13"              ,   2,      -179.0,      -153.2
"Line.L14"              ,   1,         9.4,         4.7,         0.0,         0.0,         0.0,         0.0
"Line.L14"              ,   2,        -9.4,        -4.7
"Line.L15"              ,   1,         4.7,         2.3,         0.0,         0.0,         0.0,         0.0
"Line.L15"              ,   2,        -4.7,        -2.3
"Line.L16"              ,   1,         9.4,         4.7,         0.0,         0.0,         0.0,         0.0
"Line.L16"              ,   2,        -9.4,        -4.7
"Line.L17"              ,   1,         4.7,         2.3,         0.0,         0.0,         0.0,         0.0
"Line.L17"              ,   2,        -4.7,        -2.3
"Line.L18"              ,   1,        18.8,         9.4,         0.0,         0.0,         0.0,         0.0
"Line.L18"              ,   2,       -18.8,        -9.4
"Line.L19"              ,   1,        52.5,        32.9,         0.0,         0.0,         0.0,         0.0
"Line.L19"              ,   2,       -52.5,       -32.9
"Line.L20"              ,   1,         9.4,         4.7,         0.0,         0.0,         0.0,         0.0
"Line.L20"              ,   2,        -9.4,        -4.7
"Line.L21"              ,   1,         9.4,         4.7,         0.0,         0.0,         0.0,         0.0
"Line.L21"              ,   2,        -9.4,        -4.7
"Line.L22"              ,   1,        43.1,        28.2,         0.0,         0.0,         0.0,         0.0
"Line.L22"              ,   2,       -43.1,       -28.2
"Line.L23"              ,   1,         9.4,         4.7,         0.0,         0.0,         0.0,         0.0
"Line.L23"              ,   2,        -9.4,        -4.7
"Line.L24"              ,   1,        33.7,        23.5,         0.0,         0.0,         0.0,         0.0
"Line.L24"              ,   2,       -33.7,       -23.5
"Line.L25"              ,   1,        18.8,         9.4,         0.0,         0.0,         0.0,         0.0
"Line.L25"              ,   2,       -18.8,        -9.4
"Line.L26"              ,   1,        14.9,        14.1,         0.0,         0.0,         0.0,         0.0
"Line.L26"              ,   2,       -14.9,       -14.1
"Line.L27"              ,   1,         9.4,         4.7,         0.0,         0.0,         0.0,         0.0
"Line.L27"              ,   2,        -9.4,        -4.7
"Line.L28"              ,   1,         9.4,         4.7,         0.0,         0.0,         0.0,         0.0
"Line.L28"              ,   2,        -9.4,        -4.7
"Line.L29"              ,   1,         9.4,         4.7,         0.0,         0.0,         0.0,         0.0
"Line.L29"              ,   2,        -9.4,        -4.7
"Line.L30"              ,   1,        18.8,         9.4,         0.0,         0.0,         0.0,         0.0
"Line.L30"              ,   2,       -18.8,        -9.4
"Line.L31"              ,   1,         9.4,         4.7,         0.0,         0.0,         0.0,         0.0
"Line.L31"              ,   2,        -9.4,        -4.7
"Line.L32"              ,   1,        -0.0,        -0.0,         0.0,         0.0,         0.0,         0.0
"Line.L32"              ,   2,        -0.0,        -0.0
"Line.L33"              ,   1,         4.7,         2.3,         0.0,         0.0,         0.0,         0.0
"Line.L33"              ,   2,        -4.7,        -2.3
"Line.L34"              ,   1,        14.1,         7.0,         0.0,         0.0,         0.0,         0.0
"Line.L34"              ,   2,       -14.1,        -7.0
"Line.L35"              ,   1,        18.8,         9.4,         0.0,         0.0,         0.0,         0.0
"Line.L35"              ,   2,       -18.8,        -9.4
"Line.L36"              ,   1,        79.4,        96.6,         0.0,         0.0,         0.0,         0.0
"Line.L36"              ,   2,       -79.3,       -96.5
"Line.L37"              ,   1,         9.4,         4.7,         0.0,         0.0,         0.0,         0.0
"Line.L37"              ,   2,        -9.4,        -4.7
"Line.L38"              ,   1,         9.4,         4.7,         0.0,         0.0,         0.0,         0.0
"Line.L38"              ,   2,        -9.4,        -4.7
"Line.L39"              ,   1,         4.7,         2.3,         0.0,         0.0,         0.0,         0.0
"Line.L39"              ,   2,        -4.7,        -2.3
"Line.L40"              ,   1,         4.7,         2.3,         0.0,         0.0,         0.0,         0.0
"Line.L40"              ,   2,        -4.7,        -2.3
"Line.L41"              ,   1,        74.6,        94.2,         0.0,         0.0,         0.0,         0.0
"Line.L41"              ,   2,       -74.6,       -94.1
"Line.L42"              ,   1,         9.4,         4.7,         0.0,         0.0,         0.0,         0.0
"Line.L42"              ,   2,        -9.4,        -4.7
"Line.L43"              ,   1,        60.5,        87.1,         0.0,         0.0,         0.0,         0.0
"Line.L43"              ,   2,       -60.5,       -87.0
"Line.L44"              ,   1,         9.4,         4.7,         0.0,         0.0,         0.0,         0.0
"Line.L44"              ,   2,        -9.4,        -4.7
"Line.L45"              ,   1,        51.1,        82.3,         0.0,         0.0,         0.0,         0.0
"Line.L45"              ,   2,       -51.0,       -82.3
"Line.L46"              ,   1,         4.7,         2.3,         0.0,         0.0,         0.0,         0.0
"Line.L46"              ,   2,        -4.7,        -2.3
"Line.L47"              ,   1,       -20.6,        35.3,         0.0,         0.0,         0.0,         0.0
"Line.L47"              ,   2,        20.6,       -35.2
"Line.L48"              ,   1,        47.0,        29.4,         0.0,         0.0,         0.0,         0.0
"Line.L48"              ,   2,       -47.0,       -29.4
"Line.L49"              ,   1,        14.1,         7.0,         0.0,         0.0,         0.0,         0.0
"Line.L49"              ,   2,       -14.1,        -7.0
"Line.L50"              ,   1,         4.7,         2.3,         0.0,         0.0,         0.0,         0.0
"Line.L50"              ,   2,        -4.7,        -2.3
"Line.L51"              ,   1,         0.0,        -0.0,         0.0,         0.0,         0.0,         0.0
"Line.L51"              ,   2,         0.0,         0.0
"Line.L52"              ,   1,       295.4,        16.7,         0.0,         0.0,         0.0,         0.0
"Line.L52"              ,   2,      -295.2,       -16.3
"Line.L53"              ,   1,       285.8,        11.6,         0.0,         0.0,         0.0,         0.0
"Line.L53"              ,   2,      -285.7,       -11.4
"Line.L54"              ,   1,         9.4,         4.7,         0.0,         0.0,         0.0,         0.0
"Line.L54"              ,   2,        -9.4,        -4.7
"Line.L55"              ,   1,       276.3,         6.7,         0.0,         0.0,         0.0,         0.0
"Line.L55"              ,   2,      -276.0,        -6.2
"Line.L56"              ,   1,         4.7,         2.3,         0.0,         0.0,         0.0,         0.0
"Line.L56"              ,   2,        -4.7,        -2.3
"Line.L57"              ,   1,         2.7,         4.7,         0.0,         0.0,         0.0,         0.0
"Line.L57"              ,   2,        -2.7,        -4.7
"Line.L58"              ,   1,       273.3,         1.5,         0.0,         0.0,         0.0,         0.0
"Line.L58"              ,   2,      -272.7,        -0.3
"Line.L59"              ,   1,         4.7,         2.3,         0.0,         0.0,         0.0,         0.0
"Line.L59"              ,   2,        -4.7,        -2.3
"Line.L60"              ,   1,         0.0,        -0.0,         0.0,         0.0,         0.0,         0.0
"Line.L60"              ,   2,        -0.0,         0.0
"Line.L61"              ,   1,        40.4,        49.3,         0.0,         0.0,         0.0,         0.0
"Line.L61"              ,   2,       -40.3,       -49.3
"Line.L62"              ,   1,        30.9,        44.6,         0.0,         0.0,         0.0,         0.0
"Line.L62"              ,   2,       -30.9,       -44.6
"Line.L63"              ,   1,        21.5,        39.9,         0.0,         0.0,         0.0,         0.0
"Line.L63"              ,   2,       -21.5,       -39.9
"Line.L64"              ,   1,         3.9,        31.7,         0.0,         0.0,         0.0,         0.0
"Line.L64"              ,   2,        -3.9,       -31.7
"Line.L65"              ,   1,        17.6,         8.2,         0.0,         0.0,         0.0,         0.0
"Line.L65"              ,   2,       -17.6,        -8.2
"Line.L66"              ,   1,        28.2,        14.1,         0.0,         0.0,         0.0,         0.0
"Line.L66"              ,   2,       -28.2,       -14.1
"Line.L67"              ,   1,       109.0,      -117.7,         0.0,         0.0,         0.0,         0.0
"Line.L67"              ,   2,      -108.9,       117.9
"Line.L68"              ,   1,        90.2,        51.9,         0.0,         0.0,         0.0,         0.0
"Line.L68"              ,   2,       -90.2,       -51.8
"Line.L69"              ,   1,        23.5,        11.8,         0.0,         0.0,         0.0,         0.0
"Line.L69"              ,   2,       -23.5,       -11.8
"Line.L70"              ,   1,        14.1,         7.1,         0.0,         0.0,         0.0,         0.0
"Line.L70"              ,   2,       -14.1,        -7.1
"Line.L71"              ,   1,         9.4,         4.7,         0.0,         0.0,         0.0,         0.0
"Line.L71"              ,   2,        -9.4,        -4.7
"Line.L72"              ,   1,        28.2,        14.1,         0.0,         0.0,         0.0,         0.0
"Line.L72"              ,   2,       -28.2,       -14.1
"Line.L73"              ,   1,        80.7,      -132.0,         0.0,         0.0,         0.0,         0.0
"Line.L73"              ,   2,       -80.7,       132.1
"Line.L74"              ,   1,        18.8,         9.4,         0.0,         0.0,         0.0,         0.0
"Line.L74"              ,   2,       -18.8,        -9.4
"Line.L75"              ,   1,         9.4,         4.7,         0.0,         0.0,         0.0,         0.0
"Line.L75"              ,   2,        -9.4,        -4.7
"Line.L76"              ,   1,        57.0,      -158.6,         0.0,         0.0,         0.0,         0.0
"Line.L76"              ,   2,       -56.8,       158.8
"Line.L77"              ,   1,        47.8,       -15.8,         0.0,         0.0,         0.0,         0.0
"Line.L77"              ,   2,       -47.8,        15.9
"Line.L78"              ,   1,        47.4,      -163.5,         0.0,         0.0,         0.0,         0.0
"Line.L78"              ,   2,       -47.4,       163.6
"Line.L79"              ,   1,         9.4,         4.7,         0.0,         0.0,         0.0,         0.0
"Line.L79"              ,   2,        -9.4,        -4.7
"Line.L80"              ,   1,        38.0,      -168.3,         0.0,         0.0,         0.0,         0.0
"Line.L80"              ,   2,       -37.8,       168.6
"Line.L81"              ,   1,        28.4,      -173.3,         0.0,         0.0,         0.0,         0.0
"Line.L81"              ,   2,       -28.4,       173.4
"Line.L82"              ,   1,        14.3,      -180.5,         0.0,         0.0,         0.0,         0.0
"Line.L82"              ,   2,       -14.2,       180.7
"Line.L83"              ,   1,        14.1,         7.1,         0.0,         0.0,         0.0,         0.0
"Line.L83"              ,   2,       -14.1,        -7.1
"Line.L84"              ,   1,         4.8,      -185.4,         0.0,         0.0,         0.0,         0.0
"Line.L84"              ,   2,        -4.7,       185.6
"Line.L85"              ,   1,         9.4,         4.7,         0.0,         0.0,         0.0,         0.0
"Line.L85"              ,   2,        -9.4,        -4.7
"Line.L86"              ,   1,        43.1,       -18.2,         0.0,         0.0,         0.0,         0.0
"Line.L86"              ,   2,       -43.1,        18.2
"Line.L87"              ,   1,         9.4,       -10.8,         0.0,         0.0,         0.0,         0.0
"Line.L87"              ,   2,        -9.4,        10.8
"Line.L88"              ,   1,        37.6,       -12.1,         0.0,         0.0,         0.0,         0.0
"Line.L88"              ,   2,       -37.6,        12.2
"Line.L89"              ,   1,         9.4,       -10.8,         0.0,         0.0,         0.0,         0.0
"Line.L89"              ,   2,        -9.4,        10.8
"Line.L90"              ,   1,        28.2,        -1.4,         0.0,         0.0,         0.0,         0.0
"Line.L90"              ,   2,       -28.2,         1.4
"Line.L91"              ,   1,         9.4,       -10.8,         0.0,         0.0,         0.0,         0.0
"Line.L91"              ,   2,        -9.4,        10.8
"Line.L92"              ,   1,        18.8,         9.4,         0.0,         0.0,         0.0,         0.0
"Line.L92"              ,   2,       -18.8,        -9.4
"Line.L93"              ,   1,         9.4,         4.7,         0.0,         0.0,         0.0,         0.0
"Line.L93"              ,   2,        -9.4,        -4.7
"Line.L94"              ,   1,         9.4,         4.7,         0.0,         0.0,         0.0,         0.0
"Line.L94"              ,   2,        -9.4,        -4.7
"Line.L95"              ,   1,         4.7,         2.3,         0.0,         0.0,         0.0,         0.0
"Line.L95"              ,   2,        -4.7,        -2.3
"Line.L96"              ,   1,        14.9,        14.1,         0.0,         0.0,         0.0,         0.0
"Line.L96"              ,   2,       -14.9,       -14.1
"Line.L97"              ,   1,         5.5,         9.4,         0.0,         0.0,         0.0,         0.0
"Line.L97"              ,   2,        -5.5,        -9.4
"Line.L98"              ,   1,        -3.9,         4.7,         0.0,         0.0,         0.0,         0.0
"Line.L98"              ,   2,         3.9,        -4.7
"Line.L99"              ,   1,         0.0,        -0.0,         0.0,         0.0,         0.0,         0.0
"Line.L99"              ,   2,         0.0,         0.0
"Line.L118"             ,   1,        75.3,        37.7,         0.0,         0.0,         0.0,         0.0
"Line.L118"             ,   2,       -75.3,       -37.7
"Line.L100"             ,   1,        23.5,        11.8,         0.0,         0.0,         0.0,         0.0
"Line.L100"             ,   2,       -23.5,       -11.8
"Line.L101"             ,   1,        51.8,        25.9,         0.0,         0.0,         0.0,         0.0
"Line.L101"             ,   2,       -51.8,       -25.9
"Line.L102"             ,   1,        18.8,         9.4,         0.0,         0.0,         0.0,         0.0
"Line.L102"             ,   2,       -18.8,        -9.4
"Line.L103"             ,   1,         9.4,         4.7,         0.0,         0.0,         0.0,         0.0
"Line.L103"             ,   2,        -9.4,        -4.7
"Line.L104"             ,   1,        18.8,         9.4,         0.0,         0.0,         0.0,         0.0
"Line.L104"             ,   2,       -18.8,        -9.4
"Line.L105"             ,   1,        33.0,        16.5,         0.0,         0.0,         0.0,         0.0
"Line.L105"             ,   2,       -32.9,       -16.5
"Line.L106"             ,   1,         9.4,         4.7,         0.0,         0.0,         0.0,         0.0
"Line.L106"             ,   2,        -9.4,        -4.7
"Line.L107"             ,   1,        32.9,        16.5,         0.0,         0.0,         0.0,         0.0
"Line.L107"             ,   2,       -32.9,       -16.5
"Line.L108"             ,   1,         0.0,        -0.0,         0.0,         0.0,         0.0,         0.0
"Line.L108"             ,   2,         0.0,         0.0
"Line.L109"             ,   1,        23.5,        11.8,         0.0,         0.0,         0.0,         0.0
"Line.L109"             ,   2,       -23.5,       -11.8
"Line.L110"             ,   1,         4.7,         2.3,         0.0,         0.0,         0.0,         0.0
"Line.L110"             ,   2,        -4.7,        -2.3
"Line.L111"             ,   1,        18.8,         9.4,         0.0,         0.0,         0.0,         0.0
"Line.L111"             ,   2,       -18.8,        -9.4
"Line.L112"             ,   1,        14.1,         7.1,         0.0,         0.0,         0.0,         0.0
"Line.L112"             ,   2,       -14.1,        -7.0
"Line.L113"             ,   1,         4.7,         2.3,         0.0,         0.0,         0.0,         0.0
"Line.L113"             ,   2,        -4.7,        -2.3
"Line.L114"             ,   1,       107.7,       110.9,         0.0,         0.0,         0.0,         0.0
"Line.L114"             ,   2,      -107.6,      -110.7
"Line.L116"             ,   1,       305.2,        22.2,         0.0,         0.0,         0.0,         0.0
"Line.L116"             ,   2,      -304.8,       -21.4
"Line.L117"             ,   1,       227.7,       -51.3,         0.0,         0.0,         0.0,         0.0
"Line.L117"             ,   2,      -227.5,        51.7
"Line.SW1"              ,   1,       569.3,       231.6,         0.0,         0.0,         0.0,         0.0
"Line.SW1"              ,   2,      -569.3,      -231.6
"Line.SW2"              ,   1,       305.2,        22.2,         0.0,         0.0,         0.0,         0.0
"Line.SW2"              ,   2,      -305.2,       -22.2
"Line.SW3"              ,   1,       107.7,       110.9,         0.0,         0.0,         0.0,         0.0
"Line.SW3"              ,   2,      -107.7,      -110.9
"Line.SW4"              ,   1,       227.7,       -51.3,         0.0,         0.0,         0.0,         0.0
"Line.SW4"              ,   2,      -227.7,        51.3
"Line.SW5"              ,   1,        75.3,        37.7,         0.0,         0.0,         0.0,         0.0
"Line.SW5"              ,   2,       -75.3,       -37.7
"Line.XFM1"             ,   1,         0.0,         0.0,         0.0,         0.0,         0.0,         0.0
"Line.XFM1"             ,   2,         0.0,         0.0
"Capacitor.C83"         ,   1,         0.0,      -187.9,         0.0,         0.0,         0.0,         0.0
"Capacitor.C83"         ,   2,         0.0,         0.0
"Capacitor.C88"         ,   1,        -0.0,       -15.5,         0.0,         0.0,         0.0,         0.0
"Capacitor.C88"         ,   2,         0.0,         0.0
"Capacitor.C90"         ,   1,         0.0,       -15.5,         0.0,         0.0,         0.0,         0.0
"Capacitor.C90"         ,   2,         0.0,         0.0
"Capacitor.C92"         ,   1,         0.0,       -15.5,         0.0,         0.0,         0.0,         0.0
"Capacitor.C92"         ,   2,         0.0,         0.0
"Transformer.REG1A"     ,   1,       569.3,       231.6,         0.0,         0.0,         0.0,         0.0
"Transformer.REG1A"     ,   2,      -569.3,      -231.6
"Transformer.REG2A"     ,   1,        14.1,         7.1,         0.0,         0.0,         0.0,         0.0
"Transformer.REG2A"     ,   2,       -14.1,        -7.1
"Transformer.REG3A"     ,   1,        18.8,         9.4,         0.0,         0.0,         0.0,         0.0
"Transformer.REG3A"     ,   2,       -18.8,        -9.4
"Transformer.REG4A"     ,   1,       227.7,       -51.3,         0.0,         0.0,         0.0,         0.0
"Transformer.REG4A"     ,   2,      -227.7,        51.3
"Load.S1"               ,   1,         9.4,         4.7
"Load.S2"               ,   1,         4.7,         2.3
"Load.S4"               ,   1,         9.4,         4.7
"Load.S5"               ,   1,         4.7,         2.3
"Load.S6"               ,   1,         9.4,         4.7
"Load.S7"               ,   1,         4.7,         2.3
"Load.S9"               ,   1,         9.4,         4.7
"Load.S10"              ,   1,         4.7,         2.3
"Load.S11"              ,   1,         9.4,         4.7
"Load.S12"              ,   1,         4.7,         2.3
"Load.S16"              ,   1,         9.4,         4.7
"Load.S17"              ,   1,         4.7,         2.3
"Load.S19"              ,   1,         9.4,         4.7
"Load.S20"              ,   1,         9.4,         4.7
"Load.S22"              ,   1,         9.4,         4.7
"Load.S24"              ,   1,         9.4,         4.7
"Load.S28"              ,   1,         9.4,         4.7
"Load.S29"              ,   1,         9.4,         4.7
"Load.S30"              ,   1,         9.4,         4.7
"Load.S31"              ,   1,         4.7,         2.3
"Load.S32"              ,   1,         4.7,         2.3
"Load.S33"              ,   1,         9.4,         4.7
"Load.S34"              ,   1,         9.4,         4.7
"Load.S35"              ,   1,         9.4,         4.7
"Load.S37"              ,   1,         9.4,         4.7
"Load.S38"              ,   1,         4.7,         2.3
"Load.S39"              ,   1,         4.7,         2.3
"Load.S41"              ,   1,         4.7,         2.3
"Load.S42"              ,   1,         4.7,         2.3
"Load.S43"              ,   1,         9.4,         4.7
"Load.S45"              ,   1,         4.7,         2.3
"Load.S46"              ,   1,         4.7,         2.3
"Load.S47"              ,   1,        24.7,        17.6
"Load.S48"              ,   1,        49.3,        35.2
"Load.S49"              ,   1,        32.9,        22.3
"Load.S50"              ,   1,         9.4,         4.7
"Load.S51"              ,   1,         4.7,         2.3
"Load.S52"              ,   1,         9.4,         4.7
"Load.S53"              ,   1,         9.4,         4.7
"Load.S55"              ,   1,         4.7,         2.3
"Load.S56"              ,   1,         4.7,         2.3
"Load.S58"              ,   1,         4.7,         2.3
"Load.S59"              ,   1,         4.7,         2.3
"Load.S60"              ,   1,         4.7,         2.3
"Load.S62"              ,   1,         9.4,         4.7
"Load.S63"              ,   1,         9.4,         4.7
"Load.S64"              ,   1,        17.6,         8.2
"Load.S65"              ,   1,        32.9,        23.5
"Load.S66"              ,   1,        17.6,         8.2
"Load.S68"              ,   1,         4.7,         2.3
"Load.S69"              ,   1,         9.4,         4.7
"Load.S70"              ,   1,         4.7,         2.3
"Load.S71"              ,   1,         9.4,         4.7
"Load.S73"              ,   1,         9.4,         4.7
"Load.S74"              ,   1,         9.4,         4.7
"Load.S75"              ,   1,         9.4,         4.7
"Load.S76"              ,   1,        57.6,        42.3
"Load.S77"              ,   1,         9.4,         4.7
"Load.S79"              ,   1,         9.4,         4.7
"Load.S80"              ,   1,         9.4,         4.7
"Load.S82"              ,   1,         9.4,         4.7
"Load.S83"              ,   1,         4.7,         2.3
"Load.S84"              ,   1,         4.7,         2.3
"Load.S85"              ,   1,         9.4,         4.7
"Load.S86"              ,   1,         4.7,         2.3
"Load.S87"              ,   1,         9.4,         4.7
"Load.S88"              ,   1,         9.4,         4.7
"Load.S90"              ,   1,         9.4,         4.7
"Load.S92"              ,   1,         9.4,         4.7
"Load.S94"              ,   1,         9.4,         4.7
"Load.S95"              ,   1,         4.7,         2.3
"Load.S96"              ,   1,         4.7,         2.3
"Load.S98"              ,   1,         9.4,         4.7
"Load.S99"              ,   1,         9.4,         4.7
"Load.S100"             ,   1,         9.4,         4.7
"Load.S102"             ,   1,         4.7,         2.3
"Load.S103"             ,   1,         9.4,         4.7
"Load.S104"             ,   1,         9.4,         4.7
"Load.S106"             ,   1,         9.4,         4.7
"Load.S107"             ,   1,         9.4,         4.7
"Load.S109"             ,   1,         9.4,         4.7
"Load.S111"             ,   1,         4.7,         2.3
"Load.S112"             ,   1,         4.7,         2.3
"Load.S113"             ,   1,         9.4,         4.7
"Load.S114"             ,   1,         4.7,         2.3
"PVSystem.9"            ,   1,       -13.3,         0.0
"PVSystem.28"           ,   1,       -13.3,         0.0
"PVSystem.48"           ,   1,       -70.0,         0.0
"PVSystem.58"           ,   1,        -6.7,         0.0
"PVSystem.65"           ,   1,       -46.7,         0.0
"PVSystem.76"           ,   1,       -81.7,         0.0
"PVSystem.87"           ,   1,       -13.3,         0.0
"PVSystem.100"          ,   1,       -13.3,         0.0
"Storage.BATTERY9"      ,   1,         0.0,         0.0
"Storage.BATTERY28"     ,   1,         0.0,         0.0
"Storage.BATTERY48"     ,   1,         0.0,         0.0
"Storage.BATTERY58"     ,   1,         0.0,         0.0
"Storage.BATTERY65"     ,   1,         0.0,         0.0
"Storage.BATTERY76"     ,   1,         0.0,         0.0
"Storage.BATTERY87"     ,   1,         0.0,         0.0
"Storage.BATTERY100"    ,   1,         0.0,         0.0
